Base_HO_2024/Base_HO_Max_2024_JUNIO.raw
@!IC,SBASE,REV,XFRRAT,NXFRAT,BASFRQ
0,  100.00, 35,     0,     1, 60.00     / PSS(R)E-35.3    TUE, APR 30 2024  14:57


GENERAL, THRSHZ=0.0001, PQBRAK=0.7, BLOWUP=5.0, MaxIsolLvls=4, CAMaxReptSln=20, ChkDupCntLbl=0
GAUSS, ITMX=100, ACCP=1.6, ACCQ=1.6, ACCM=1.0, TOL=0.0001
NEWTON, ITMXN=20, ACCN=1.0, TOLN=0.1, VCTOLQ=0.1, VCTOLV=0.00001, DVLIM=0.99, NDVFCT=0.99
ADJUST, ADJTHR=0.005, ACCTAP=1.0, TAPLIM=0.05, SWVBND=100.0, MXTPSS=99, MXSWIM=10
TYSL, ITMXTY=20, ACCTY=1.0, TOLTY=0.00001
SOLVER, FNSL, ACTAPS=0, AREAIN=0, PHSHFT=0, DCTAPS=1, SWSHNT=1, FLATST=0, VARLIM=99, NONDIV=0
RATING, 1, "RATE1 ", "RATING SET 1                    "
RATING, 2, "RATE2 ", "RATING SET 2                    "
RATING, 3, "RATE3 ", "RATING SET 3                    "
RATING, 4, "RATE4 ", "RATING SET 4                    "
RATING, 5, "RATE5 ", "RATING SET 5                    "
RATING, 6, "RATE6 ", "RATING SET 6                    "
RATING, 7, "RATE7 ", "RATING SET 7                    "
RATING, 8, "RATE8 ", "RATING SET 8                    "
RATING, 9, "RATE9 ", "RATING SET 9                    "
RATING,10, "RATE10", "RATING SET 10                   "
RATING,11, "RATE11", "RATING SET 11                   "
RATING,12, "RATE12", "RATING SET 12                   "
0 / END OF SYSTEM-WIDE DATA, BEGIN BUS DATA
@!   I,'NAME        ', BASKV, IDE,AREA,ZONE,OWNER, VM,        VA,    NVHI,   NVLO,   EVHI,   EVLO
  3001,'CJN U01     ',  13.8000,3,   3,   3,   1,1.04000,   0.0000,1.10000,0.90000,1.10000,0.90000
  3002,'CJN U02     ',  13.8000,2,   3,   3,   1,1.04000,   0.0181,1.10000,0.90000,1.10000,0.90000
  3003,'CJN U03     ',  13.8000,2,   3,   3,   1,1.04000,   0.0181,1.10000,0.90000,1.10000,0.90000
  3004,'CJN U04     ',  13.8000,2,   3,   3,   1,1.04000,   0.0181,1.10000,0.90000,1.10000,0.90000
  3005,'CRL U01     ',  13.8000,2,   3,   3,   1,1.00563,  -6.5328,1.10000,0.90000,1.10000,0.90000
  3006,'CRL U02     ',  13.8000,2,   3,   3,   1,1.00565,  -6.5301,1.10000,0.90000,1.10000,0.90000
  3007,'RLN U01     ',  13.8000,2,   3,   3,   1,1.01832,  -5.3718,1.10000,0.90000,1.10000,0.90000
  3008,'RLN U02     ',  13.8000,2,   3,   3,   1,1.01832,  -5.3718,1.10000,0.90000,1.10000,0.90000
  3009,'RLN U03     ',  13.8000,2,   3,   3,   1,1.01521,  -5.7389,1.10000,0.90000,1.10000,0.90000
  3010,'RLN U04     ',  13.8000,2,   3,   3,   1,1.01578,  -6.1746,1.10000,0.90000,1.10000,0.90000
  3011,'NIS U01     ',  13.8000,2,   3,   3,   1,1.01000,  -5.3974,1.10000,0.90000,1.10000,0.90000
  3012,'LUV B241    ',  13.8000,2,   3,   5,   2,1.02000,  -0.0588,1.10000,0.90000,1.10000,0.90000
  3013,'LUV B242    ',  13.8000,2,   3,   5,   2,1.02000,  -1.4905,1.10000,0.90000,1.10000,0.90000
  3014,'LUV B243    ',  13.8000,2,   3,   5,   2,1.00753,  -4.3351,1.10000,0.90000,1.10000,0.90000
  3015,'LSL U01     ',  13.8000,2,   3,   5,   2,1.03272,  -4.3351,1.10000,0.90000,1.10000,0.90000
  3016,'MFL B212    ',  13.8000,1,   3,   4,   1,1.01601, -18.5458,1.10000,0.90000,1.10000,0.90000
  3017,'LPT B202    ',  13.8000,2,   3,   1,   1,0.99418, -10.5824,1.10000,0.90000,1.10000,0.90000
  3018,'LPT B201    ',  13.8000,2,   3,   1,   1,0.99222,  51.3910,1.10000,0.90000,1.10000,0.90000
  3019,'ECH B274    ',  13.8000,2,   3,   1,   2,1.01365,  -9.5150,1.10000,0.90000,1.10000,0.90000
  3020,'TAL B217    ',  13.8000,2,   3,   1,   1,1.00530,  -0.0210,1.10000,0.90000,1.10000,0.90000
  3021,'TSZ B257    ',  13.8000,2,   3,   1,   1,1.00055,  -3.7538,1.10000,0.90000,1.10000,0.90000
  3022,'LVI B238    ',  13.8000,1,   3,   1,   1,0.98387, -10.7307,1.10000,0.90000,1.10000,0.90000
  3023,'CTE B209    ',  13.8000,2,   3,   2,   1,1.00868,  -8.8147,1.10000,0.90000,1.10000,0.90000
  3024,'PGR B318    ',  34.5000,1,   3,   1,   1,0.99337, -12.6386,1.10000,0.90000,1.10000,0.90000
  3025,'CJL 4.16KV  ',   4.1600,1,   3,   3,   2,0.99645,  53.2126,1.10000,0.90000,1.10000,0.90000
  3026,'SFE B215    ',  13.8000,1,   3,   4,   1,1.00814, -19.1415,1.10000,0.90000,1.10000,0.90000
  3027,'CTE B307    ',  34.5000,1,   3,   2,   1,0.98958,  21.7388,1.10000,0.90000,1.10000,0.90000
  3028,'SMT B234    ',  13.8000,1,   3,   1,   1,0.99292, -14.2585,1.10000,0.90000,1.10000,0.90000
  3029,'CRL B501    ', 138.0000,1,   3,   3,   1,0.99844,  22.4550,1.10000,0.90000,1.10000,0.90000
  3030,'SUY B515    ', 138.0000,1,   3,   4,   1,1.01083,  17.9484,1.10000,0.90000,1.10000,0.90000
  3031,'CDA B530    ', 138.0000,1,   3,   4,   1,1.00711,  17.8506,1.10000,0.90000,1.10000,0.90000
  3032,'CJN B601    ', 230.0000,1,   3,   3,   1,1.02851,  26.1585,1.10000,0.90000,1.10000,0.90000
  3033,'SUY B612    ', 230.0000,1,   3,   4,   1,1.00585,  22.2893,1.10000,0.90000,1.10000,0.90000
  3034,'PAV B620    ', 230.0000,1,   3,   5,   1,1.03270,  25.6619,1.10000,0.90000,1.10000,0.90000
  3035,'BER B205    ',  13.8000,1,   3,   1,   1,0.98828, -12.2795,1.10000,0.90000,1.10000,0.90000
  3036,'BER B410    ',  69.0000,1,   3,   1,   1,1.00221,  26.0848,1.10000,0.90000,1.10000,0.90000
  3037,'BER B507    ', 138.0000,1,   3,   1,   1,0.98642,  23.7490,1.10000,0.90000,1.10000,0.90000
  3038,'PGR B509    ', 138.0000,1,   3,   1,   1,1.00886,  23.7881,1.10000,0.90000,1.10000,0.90000
  3039,'BIJ 4.16KV  ',   4.1600,1,   3,   1,   2,0.99398,  -8.6243,1.10000,0.90000,1.10000,0.90000
  3040,'BIJ B562    ', 138.0000,1,   3,   1,   1,0.99222,  26.0537,1.10000,0.90000,1.10000,0.90000
  3042,'BOR B332    ',  34.5000,2,   3,   2,   1,1.00010,  18.3182,1.10000,0.90000,1.10000,0.90000
  3043,'BOR B571    ', 138.0000,1,   3,   2,   1,0.98346,  25.0590,1.10000,0.90000,1.10000,0.90000
  3044,'BVI B218    ',  13.8000,1,   3,   1,   1,0.99309, -10.5865,1.10000,0.90000,1.10000,0.90000
  3045,'BVI B528    ', 138.0000,1,   3,   1,   1,0.98479,  23.5111,1.10000,0.90000,1.10000,0.90000
  3046,'CCE B330    ',  34.5000,1,   3,   2,   1,0.98840, -11.2612,1.10000,0.90000,1.10000,0.90000
  3047,'CCE B565    ', 138.0000,1,   3,   2,   1,0.98972,  25.4779,1.10000,0.90000,1.10000,0.90000
  3048,'CHM B239    ',  13.8000,1,   3,   1,   1,1.01365,  -9.5149,1.10000,0.90000,1.10000,0.90000
  3049,'CHM B539    ', 138.0000,1,   3,   1,   1,1.00140,  25.3832,1.10000,0.90000,1.10000,0.90000
  3050,'BVI B219    ',  13.8000,1,   3,   1,   1,0.99394, -11.2805,1.10000,0.90000,1.10000,0.90000
  3051,'CIR B221    ',  13.8000,1,   3,   1,   1,0.98915, -13.2482,1.10000,0.90000,1.10000,0.90000
  3052,'CIR B537    ', 138.0000,1,   3,   1,   1,0.98582,  23.4771,1.10000,0.90000,1.10000,0.90000
  3053,'CRL B301    ',  34.5000,1,   3,   3,   1,1.03003,  13.7938,1.10000,0.90000,1.10000,0.90000
  3054,'CRL 69KV    ',  69.0000,1,   3,   3,   1,1.01395,  22.3235,1.10000,0.90000,1.10000,0.90000
  3055,'CTE B513    ', 138.0000,1,   3,   2,   1,0.98951,  23.2112,1.10000,0.90000,1.10000,0.90000
  3056,'CYG B316    ',  34.5000,1,   3,   4,   1,0.99005, -19.2367,1.10000,0.90000,1.10000,0.90000
  3057,'DAN B334    ',  34.5000,1,   3,   4,   1,0.99449,   0.3384,1.10000,0.90000,1.10000,0.90000
  3058,'DAN B432    ',  69.0000,1,   3,   4,   1,0.98913,   3.2945,1.10000,0.90000,1.10000,0.90000
  3059,'ELC B560    ', 138.0000,1,   3,   1,   1,1.00061,  26.2526,1.10000,0.90000,1.10000,0.90000
  3060,'CYG B536    ', 138.0000,1,   3,   4,   1,0.97502,  16.5197,1.10000,0.90000,1.10000,0.90000
  3061,'GMC B347    ',  34.5000,1,   3,   4,   1,0.99805,   1.8772,1.10000,0.90000,1.10000,0.90000
  3062,'GMC B437    ',  69.0000,1,   3,   4,   1,1.01152,   7.5034,1.10000,0.90000,1.10000,0.90000
  3063,'GUA B337    ',  34.5000,1,   3,   2,   1,1.00278,  18.7260,1.10000,0.90000,1.10000,0.90000
  3064,'GUA B537    ', 138.0000,1,   3,   2,   1,1.00052,  22.8840,1.10000,0.90000,1.10000,0.90000
  3065,'HYO U01     ',   0.4800,2,   3,   1,   2,1.00197, -40.4923,1.10000,0.90000,1.10000,0.90000
  3066,'ISL B334    ',  34.5000,1,   3,   2,   1,0.98483, -13.3839,1.10000,0.90000,1.10000,0.90000
  3067,'ISL B520    ', 138.0000,1,   3,   2,   1,0.98016,  24.0197,1.10000,0.90000,1.10000,0.90000
  3068,'JUT B337    ',  34.5000,2,   3,   4,   1,1.02000,   5.5215,1.10000,0.90000,1.10000,0.90000
  3069,'JUT B438    ',  69.0000,1,   3,   4,   1,1.00640,   9.5628,1.10000,0.90000,1.10000,0.90000
  3070,'LFL B301    ',  34.5000,1,   3,   3,   1,0.99454,  14.2379,1.10000,0.90000,1.10000,0.90000
  3071,'LFL B434    ',  69.0000,1,   3,   3,   1,0.98421,  19.9384,1.10000,0.90000,1.10000,0.90000
  3073,'LIM 69KV    ',  69.0000,1,   3,   1,   1,0.98613,  20.5834,1.10000,0.90000,1.10000,0.90000
  3074,'LLN B213    ',  13.8000,1,   3,   4,   1,1.00554, -21.6575,1.10000,0.90000,1.10000,0.90000
  3075,'LLN B419    ',  69.0000,1,   3,   4,   1,1.03036,  13.5939,1.10000,0.90000,1.10000,0.90000
  3076,'LNZ B226    ',  13.8000,1,   3,   4,   1,1.00719, -18.4947,1.10000,0.90000,1.10000,0.90000
  3077,'LNZ B425    ',  69.0000,1,   3,   4,   1,1.03286,  13.7296,1.10000,0.90000,1.10000,0.90000
  3078,'LPT B503    ', 138.0000,1,   3,   1,   1,0.98526,  23.5008,1.10000,0.90000,1.10000,0.90000
  3079,'LSL B628    ', 230.0000,1,   3,   5,   1,1.03272,  25.6649,1.10000,0.90000,1.10000,0.90000
  3080,'LUV B621    ', 230.0000,1,   3,   5,   1,1.03272,  25.6649,1.10000,0.90000,1.10000,0.90000
  3081,'MAS B352    ',  34.5000,1,   3,   1,   1,0.99325,  22.0269,1.10000,0.90000,1.10000,0.90000
  3082,'MAS B544    ', 138.0000,1,   3,   1,   1,0.99936,  25.9232,1.10000,0.90000,1.10000,0.90000
  3083,'MCH B311    ',  34.5000,1,   3,   3,   1,0.99487,  10.5861,1.10000,0.90000,1.10000,0.90000
  3084,'MCH 2.4KV   ',   2.4000,1,   3,   3,   1,1.03249, -23.0304,1.10000,0.90000,1.10000,0.90000
  3085,'MFL B523    ', 138.0000,1,   3,   4,   1,1.00685,  17.7329,1.10000,0.90000,1.10000,0.90000
  3086,'MOR B335    ',  34.5000,1,   3,   1,   1,0.99138,  16.8379,1.10000,0.90000,1.10000,0.90000
  3087,'MOR B435    ',  69.0000,1,   3,   1,   1,0.98509,  20.7590,1.10000,0.90000,1.10000,0.90000
  3088,'NIS B310    ',  34.5000,1,   3,   3,   1,0.99489,  23.0461,1.10000,0.90000,1.10000,0.90000
  3089,'NIS B439    ',  69.0000,1,   3,   3,   1,1.00212,  22.1609,1.10000,0.90000,1.10000,0.90000
  3090,'PAV B363    ',  34.5000,2,   3,   5,   1,1.00200,  18.1164,1.10000,0.90000,1.10000,0.90000
  3091,'PAZ B525    ', 138.0000,1,   3,   4,   1,0.97400,  16.8370,1.10000,0.90000,1.10000,0.90000
  3092,'PAZ B125    ',   4.1600,1,   3,   4,   2,1.01355,  44.9443,1.10000,0.90000,1.10000,0.90000
  3093,'LOS PLANES  ',   0.4000,4,   3,   4,   2,1.00000,   0.0000,1.10000,0.90000,1.10000,0.90000
  3094,'PGR B422    ',  69.0000,1,   3,   1,   1,0.99562,  21.5472,1.10000,0.90000,1.10000,0.90000
  3095,'PGR B603    ', 230.0000,1,   3,   1,   1,1.00987,  25.0606,1.10000,0.90000,1.10000,0.90000
  3096,'BER B206    ',  13.8000,1,   3,   1,   1,0.98343, -12.0737,1.10000,0.90000,1.10000,0.90000
  3097,'RGU B518    ', 138.0000,1,   3,   2,   1,0.98530,  24.4064,1.10000,0.90000,1.10000,0.90000
  3098,'RLN B521    ', 138.0000,1,   3,   1,   1,1.00722,  23.3365,1.10000,0.90000,1.10000,0.90000
  3099,'SFE B303    ',  34.5000,1,   3,   4,   1,1.01413,  13.1458,1.10000,0.90000,1.10000,0.90000
  3100,'SFE B404    ',  69.0000,1,   3,   4,   1,1.03511,  13.7838,1.10000,0.90000,1.10000,0.90000
  3101,'SFE B505    ', 138.0000,1,   3,   4,   1,1.00304,  17.6116,1.10000,0.90000,1.10000,0.90000
  3102,'SGT B374    ',  34.5000,1,   3,   4,   1,1.01566,  10.0638,1.10000,0.90000,1.10000,0.90000
  3103,'SGT 138KV   ', 138.0000,1,   3,   4,   1,0.97698,  17.8833,1.10000,0.90000,1.10000,0.90000
  3104,'SIS B309    ',  34.5000,2,   3,   2,   1,1.01000, -11.2530,1.10000,0.90000,1.10000,0.90000
  3105,'SIS B548    ', 138.0000,1,   3,   2,   1,0.98959,  23.4171,1.10000,0.90000,1.10000,0.90000
  3106,'SLU B321    ',  34.5000,2,   3,   5,   1,0.99738,  21.6880,1.10000,0.90000,1.10000,0.90000
  3108,'SMT B534    ', 138.0000,1,   3,   1,   1,0.99787,  23.8608,1.10000,0.90000,1.10000,0.90000
  3109,'SRS B331    ',  34.5000,4,   3,   3,   1,1.00000,   0.0000,1.10000,0.90000,1.10000,0.90000
  3110,'PNU 69KV    ',  69.0000,1,   3,   4,   1,1.03363,  13.8318,1.10000,0.90000,1.10000,0.90000
  3111,'SRS B433    ',  69.0000,1,   3,   3,   1,0.99333,  21.3942,1.10000,0.90000,1.10000,0.90000
  3112,'SUY B203    ',  13.8000,1,   3,   4,   1,1.01620, -18.3306,1.10000,0.90000,1.10000,0.90000
  3113,'SUY B418    ',  69.0000,1,   3,   4,   1,1.03506,  14.1049,1.10000,0.90000,1.10000,0.90000
  3114,'BAB U01     ',  13.8000,2,   3,   4,   2,1.02000, -22.1833,1.10000,0.90000,1.10000,0.90000
  3115,'SMR U01     ',  13.8000,4,   3,   4,   1,1.00000,   0.0000,1.10000,0.90000,1.10000,0.90000
  3116,'TAL B404    ',  69.0000,1,   3,   1,   1,1.00530,  29.9790,1.10000,0.90000,1.10000,0.90000
  3117,'TEL B305    ',  34.5000,1,   3,   2,   1,1.00221,  15.4532,1.10000,0.90000,1.10000,0.90000
  3118,'TEL B511    ', 138.0000,1,   3,   2,   1,0.99173,  22.1145,1.10000,0.90000,1.10000,0.90000
  3119,'TON B228    ',  13.8000,1,   3,   4,   1,1.00568, -13.6290,1.10000,0.90000,1.10000,0.90000
  3120,'TON B535    ', 138.0000,1,   3,   4,   1,1.01013,  18.2519,1.10000,0.90000,1.10000,0.90000
  3121,'TSZ B226    ',  13.8000,1,   3,   1,   1,0.99588,  52.1366,1.10000,0.90000,1.10000,0.90000
  3122,'TSZ B526    ', 138.0000,1,   3,   1,   1,1.00055,  26.2462,1.10000,0.90000,1.10000,0.90000
  3123,'VNU B520    ', 138.0000,1,   3,   1,   1,0.99026,  23.4936,1.10000,0.90000,1.10000,0.90000
  3124,'VNU B322    ',  34.5000,2,   3,   1,   1,1.00000,  -9.9927,1.10000,0.90000,1.10000,0.90000
  3125,'RBL U01     ',   4.1600,2,   3,   3,   2,1.00000, -13.6095,1.10000,0.90000,1.10000,0.90000
  3126,'YOR B336    ',  34.5000,1,   3,   1,   1,0.99096,  13.7156,1.10000,0.90000,1.10000,0.90000
  3127,'ZAM B331    ',  34.5000,1,   3,   4,   1,0.99412,   6.2644,1.10000,0.90000,1.10000,0.90000
  3128,'ZAM B431    ',  69.0000,1,   3,   4,   1,1.00757,   8.7514,1.10000,0.90000,1.10000,0.90000
  3129,'ZAC U01     ',   0.4800,2,   3,   3,   2,1.02000,  -6.3060,1.10000,0.90000,1.10000,0.90000
  3130,'CDA B210    ',  13.8000,1,   3,   4,   1,1.01081, -17.5125,1.10000,0.90000,1.10000,0.90000
  3131,'SUY R212    ',  13.8000,1,   3,   4,   1,1.01396, -12.3093,1.10000,0.90000,1.10000,0.90000
  3132,'SUY R213    ',  13.8000,1,   3,   4,   1,1.01392, -12.3061,1.10000,0.90000,1.10000,0.90000
  3133,'PNU 13.8KV  ',  13.8000,1,   3,   4,   1,1.00715, -17.8145,1.10000,0.90000,1.10000,0.90000
  3134,'LPT B244    ',  13.8000,1,   3,   1,   1,0.99021, -10.8396,1.10000,0.90000,1.10000,0.90000
  3135,'SFE 34.5KV  ',  34.5000,1,   3,   4,   1,1.00600,  13.7838,1.10000,0.90000,1.10000,0.90000
  3136,'BER 13.8KV  ',  13.8000,1,   3,   1,   1,1.00190,  -6.6132,1.10000,0.90000,1.10000,0.90000
  3137,'CIR B222    ',  13.8000,1,   3,   1,   1,0.99027, -11.5952,1.10000,0.90000,1.10000,0.90000
  3139,'GEV U01     ',   0.4800,2,   3,   1,   2,1.01000, -42.8199,1.10000,0.90000,1.10000,0.90000
  3140,'RET B257    ',  13.8000,1,   3,   1,   1,0.99467, -10.8918,1.10000,0.90000,1.10000,0.90000
  3141,'DAN B333    ',  34.5000,2,   3,   4,   1,0.99449,   0.3384,1.10000,0.90000,1.10000,0.90000
  3142,'ENF U01     ',   0.4800,2,   3,   1,   2,1.00539, -42.5897,1.10000,0.90000,1.10000,0.90000
  3143,'CHU U01     ',  13.8000,2,   3,   1,   2,1.00539, -42.5897,1.10000,0.90000,1.10000,0.90000
  3144,'LGL U01     ',  13.8000,2,   3,   2,   1,1.00993, -40.5705,1.10000,0.90000,1.10000,0.90000
  3145,'CUY 69      ',  69.0000,1,   3,   1,   2,0.98609,  21.2652,1.10000,0.90000,1.10000,0.90000
  3146,'CUY U01     ',  13.8000,2,   3,   1,   2,1.00000,  -2.6338,1.10000,0.90000,1.10000,0.90000
  3147,'SRS B331    ',  34.5000,4,   3,   3,   1,1.00000,   0.0000,1.10000,0.90000,1.10000,0.90000
  3148,'NIC U05     ',   0.4800,2,   3,   2,   2,1.00000,  -6.3427,1.10000,0.90000,1.10000,0.90000
  3149,'RLQ B056    ',   0.4150,1,   3,   3,   2,0.99510, -42.4388,1.10000,0.90000,1.10000,0.90000
  3150,'LNZ B227    ',  13.8000,1,   3,   4,   1,1.00719, -18.4947,1.10000,0.90000,1.10000,0.90000
  3151,'SGT 34.5KV  ',  34.5000,1,   3,   4,   1,0.96259,  11.6603,1.10000,0.90000,1.10000,0.90000
  3152,'SRS B332    ',  34.5000,1,   3,   3,   1,0.99513, -13.3036,1.10000,0.90000,1.10000,0.90000
  3153,'CYM U01     ',   4.1600,2,   3,   1,   2,0.99263,  -5.9388,1.10000,0.90000,1.10000,0.90000
  3154,'SCA U01     ',   4.1600,2,   3,   1,   2,0.99325,  -7.9731,1.10000,0.90000,1.10000,0.90000
  3155,'TON B610    ', 230.0000,1,   3,   4,   1,1.01513,  22.9125,1.10000,0.90000,1.10000,0.90000
  3156,'NIV U01     ',   0.4800,2,   3,   1,   2,1.01869, -15.7694,1.10000,0.90000,1.10000,0.90000
  3157,'CCE B 329   ',  34.5000,1,   3,   2,   1,0.98840, -11.2612,1.10000,0.90000,1.10000,0.90000
  3158,'COR U01     ',   4.1600,2,   3,   1,   2,0.99319,  -7.3322,1.10000,0.90000,1.10000,0.90000
  3159,'VNU B323    ',  34.5000,1,   3,   1,   1,1.00000,  -9.9927,1.10000,0.90000,1.10000,0.90000
  3160,'RET 138KV   ', 138.0000,1,   3,   1,   1,0.98853,  23.2799,1.10000,0.90000,1.10000,0.90000
  3161,'RET B256    ',  13.8000,1,   3,   1,   1,0.99361, -12.4283,1.10000,0.90000,1.10000,0.90000
  3162,'LES U01     ',   4.1600,2,   3,   4,   2,1.01448, -47.3349,1.10000,0.90000,1.10000,0.90000
  3163,'CPA U01     ',   4.1600,2,   3,   1,   2,1.03000, -15.6037,1.10000,0.90000,1.10000,0.90000
  3164,'ISL B331    ',  34.5000,1,   3,   2,   1,1.00231, -11.3729,1.10000,0.90000,1.10000,0.90000
  3165,'PEB U01     ',   4.1600,2,   3,   3,   2,1.00330, -15.2304,1.10000,0.90000,1.10000,0.90000
  3166,'APC U01     ',   0.4800,2,   3,   3,   2,1.00000, -17.6859,1.10000,0.90000,1.10000,0.90000
  3167,'IHS U01     ',   0.4800,2,   3,   1,   2,1.00000, -37.1267,1.10000,0.90000,1.10000,0.90000
  3168,'ECO U01     ',   0.4800,2,   3,   1,   2,1.00247,  -9.8604,1.10000,0.90000,1.10000,0.90000
  3169,'CYR U01     ',   4.1600,2,   3,   4,   1,1.01000, -45.7853,1.10000,0.90000,1.10000,0.90000
  3170,'CUY 69KV    ',  69.0000,1,   3,   1,   1,0.98430,  20.9669,1.10000,0.90000,1.10000,0.90000
  3171,'CRN U01     ',  13.8000,2,   3,   4,   2,1.01850, -21.3747,1.10000,0.90000,1.10000,0.90000
  3173,'LEA U01     ',   4.1600,2,   3,   1,   2,1.00599, -13.4101,1.10000,0.90000,1.10000,0.90000
  3174,'MGG U01     ',   4.1600,2,   3,   1,   2,1.00200, -13.3600,1.10000,0.90000,1.10000,0.90000
  3175,'YOD U01     ',   4.1600,2,   3,   1,   2,0.99096, -16.2844,1.10000,0.90000,1.10000,0.90000
  3176,'ACE U01     ',   4.1600,2,   3,   2,   2,0.99713,  -7.2649,1.10000,0.90000,1.10000,0.90000
  3177,'LAU U01     ',   4.1600,2,   3,   1,   2,1.00000,  -7.3963,1.10000,0.90000,1.10000,0.90000
  3178,'TER T537    ',  13.8000,1,   3,   1,   1,0.98298, -11.7018,1.10000,0.90000,1.10000,0.90000
  3179,'TER LVI 138 ', 138.0000,1,   3,   1,   1,0.99524,  24.7522,1.10000,0.90000,1.10000,0.90000
  3180,'CAR B540    ', 138.0000,1,   3,   1,   1,0.99949,  23.4142,1.10000,0.90000,1.10000,0.90000
  3181,'CAR B340    ',  34.5000,2,   3,   1,   1,1.00224, -11.8091,1.10000,0.90000,1.10000,0.90000
  3182,'SJP U01     ',  13.8000,2,   3,   2,   2,1.02000,  -5.3173,1.10000,0.90000,1.10000,0.90000
  3183,'LEC B619    ', 230.0000,1,   3,   3,   1,1.02707,  22.9347,1.10000,0.90000,1.10000,0.90000
  3184,'LEC B309    ',  34.5000,1,   3,   3,   1,0.99332, -15.1643,1.10000,0.90000,1.10000,0.90000
  3185,'NCO B564    ', 138.0000,1,   3,   1,   1,0.97682,  23.1847,1.10000,0.90000,1.10000,0.90000
  3186,'NCO B364    ',  34.5000,1,   3,   1,   1,1.00539, -12.5897,1.10000,0.90000,1.10000,0.90000
  3187,'CYG B315    ',  34.5000,2,   3,   4,   1,0.99734, -21.5071,1.10000,0.90000,1.10000,0.90000
  3188,'PSM 230     ', 230.0000,1,   3,   5,   2,1.03814,  26.7047,1.10000,0.90000,1.10000,0.90000
  3190,'F-LEC-PAN   ', 230.0000,1,   3,   1,   1,1.02955,  22.9134,1.10000,0.90000,1.10000,0.90000
  3193,'EL ESTADIO  ', 138.0000,1,   3,   1,   1,0.98758,  23.6427,1.10000,0.90000,1.10000,0.90000
  3194,'EST CARGA   ',  13.8000,1,   3,   1,   1,0.99679,  -8.9101,1.10000,0.90000,1.10000,0.90000
  3201,'SOLAR NAC1  ',  34.5000,2,   3,   5,   2,1.03546,  55.7146,1.10000,0.90000,1.10000,0.90000
  3203,'SPS B558    ', 138.0000,1,   3,   1,   1,0.99213,  24.0864,1.10000,0.90000,1.10000,0.90000
  3204,'AGP B556    ', 138.0000,1,   3,   1,   1,1.00269,  25.4911,1.10000,0.90000,1.10000,0.90000
  3205,'ENR B246    ',  13.8000,2,   3,   1,   2,1.02000,  61.8492,1.10000,0.90000,1.10000,0.90000
  3206,'ENR B247    ',  13.8000,2,   3,   1,   2,1.02000,  61.8492,1.10000,0.90000,1.10000,0.90000
  3207,'ENR B248    ',  13.8000,2,   3,   1,   2,1.02000,  61.8492,1.10000,0.90000,1.10000,0.90000
  3208,'ENR B249    ',  13.8000,2,   3,   1,   2,1.02000,  61.8492,1.10000,0.90000,1.10000,0.90000
  3209,'ENR B250    ',  13.8000,2,   3,   1,   2,1.00561,  57.6191,1.10000,0.90000,1.10000,0.90000
  3210,'PSM TER9    ',   0.7000,2,   3,   5,   2,1.00911,   1.3153,1.10000,0.90000,1.10000,0.90000
  3211,'NNC B639    ', 230.0000,1,   3,   5,   1,1.03549,  25.7143,1.10000,0.90000,1.10000,0.90000
  3213,'BCO 138     ', 138.0000,1,   3,   1,   1,0.99276,  26.1368,1.10000,0.90000,1.10000,0.90000
  3214,'BCO 13.8    ',  13.8000,2,   3,   1,   1,0.99800,   0.8454,1.10000,0.90000,1.10000,0.90000
  3215,'MAT I 4.16  ',   4.2000,2,   3,   1,   1,1.00193,  46.8033,1.10000,0.90000,1.10000,0.90000
  3218,'BETUL 0.48  ',   0.5000,2,   3,   5,   1,0.98715,  -6.7551,1.10000,0.90000,1.10000,0.90000
...
0 / END OF BUS DATA, BEGIN LOAD DATA
@!   I,'ID',STAT,AREA,ZONE,      PL,        QL,        IP,        IQ,        YP,        YQ, OWNER,SCALE,INTRPT,  DGENP,     DGENQ,DGENF,'  LOAD TYPE '
  3016,'1 ',   1,   3,   4,     4.840,     0.389,     0.000,     0.000,     0.000,     0.000,   1,    1,  0,     0.000,     0.000,    0,'            '
  3016,'2 ',   1,   3,   4,     4.791,     0.651,     0.000,     0.000,     0.000,     0.000,   1,    1,  0,     0.000,     0.000,    0,'            '
  3016,'3 ',   1,   3,   4,     7.241,     1.753,     0.000,     0.000,     0.000,     0.000,   1,    1,  0,     0.000,     0.000,    0,'            '
  3016,'4 ',   1,   3,   4,     6.459,     1.245,     0.000,     0.000,     0.000,     0.000,   1,    1,  0,     0.000,     0.000,    0,'            '
  3016,'5 ',   1,   3,   4,     2.815,     0.748,     0.000,     0.000,     0.000,     0.000,   1,    1,  0,     0.000,     0.000,    0,'            '
  3016,'6 ',   1,   3,   4,     6.146,     1.816,     0.000,     0.000,     0.000,     0.000,   1,    1,  0,     0.000,     0.000,    0,'            '
  3016,'7 ',   1,   3,   4,     5.203,     1.195,     0.000,     0.000,     0.000,     0.000,   1,    1,  0,     0.000,     0.000,    0,'            '
  3017,'1 ',   1,   3,   1,     8.191,     2.079,     0.000,     0.000,     0.000,     0.000,   1,    1,  0,     0.000,     0.000,    0,'            '
  3017,'2 ',   1,   3,   1,     3.460,     0.668,     0.000,     0.000,     0.000,     0.000,   1,    1,  0,     0.000,     0.000,    0,'            '
  3018,'1 ',   0,   3,   1,     0.000,     0.000,     0.000,     0.000,     0.000,     0.000,   1,    1,  0,     0.000,     0.000,    0,'            '
  3018,'2 ',   1,   3,   1,     8.411,     2.465,     0.000,     0.000,     0.000,     0.000,   1,    1,  0,     0.000,     0.000,    0,'            '
  3022,'1 ',   1,   3,   1,    11.489,     3.824,     0.000,     0.000,     0.000,     0.000,   1,    1,  0,     0.000,     0.000,    0,'            '
  3022,'2 ',   1,   3,   1,     1.508,     0.115,     0.000,     0.000,     0.000,     0.000,   1,    1,  0,     0.000,     0.000,    0,'            '
  3022,'3 ',   1,   3,   1,    12.586,     2.965,     0.000,     0.000,     0.000,     0.000,   1,    1,  0,     0.000,     0.000,    0,'            '
  3022,'4 ',   1,   3,   1,     6.165,     1.532,     0.000,     0.000,     0.000,     0.000,   1,    1,  0,     0.000,     0.000,    0,'            '
  3024,'1 ',   1,   3,   1,     9.202,     1.730,     0.000,     0.000,     0.000,     0.000,   1,    1,  0,     0.000,     0.000,    0,'            '
  3024,'2 ',   1,   3,   1,    15.482,     2.431,     0.000,     0.000,     0.000,     0.000,   1,    1,  0,     0.000,     0.000,    0,'            '
  3024,'3 ',   1,   3,   1,    20.027,     4.439,     0.000,     0.000,     0.000,     0.000,   1,    1,  0,     0.000,     0.000,    0,'            '
  3025,'1 ',   1,   3,   3,    -0.240,    -0.130,     0.000,     0.000,     0.000,     0.000,   2,    0,  0,     0.000,     0.000,    0,'            '
  3026,'1 ',   1,   3,   4,    10.891,     2.781,     0.000,     0.000,     0.000,     0.000,   1,    1,  0,     0.000,     0.000,    0,'            '
  3026,'2 ',   1,   3,   4,    13.132,     4.091,     0.000,     0.000,     0.000,     0.000,   1,    1,  0,     0.000,     0.000,    0,'            '
  3026,'3 ',   1,   3,   4,    14.262,     1.484,     0.000,     0.000,     0.000,     0.000,   1,    1,  0,     0.000,     0.000,    0,'            '
  3026,'4 ',   0,   3,   4,     0.000,     0.000,     0.000,     0.000,     0.000,     0.000,   1,    1,  0,     0.000,     0.000,    0,'            '
  3026,'5 ',   0,   3,   4,     0.000,     0.000,     0.000,     0.000,     0.000,     0.000,   1,    1,  0,     0.000,     0.000,    0,'            '
  3027,'1 ',   1,   3,   2,     4.939,     1.047,     0.000,     0.000,     0.000,     0.000,   1,    1,  0,     0.000,     0.000,    0,'            '
  3027,'2 ',   1,   3,   2,     6.853,     1.476,     0.000,     0.000,     0.000,     0.000,   1,    1,  0,     0.000,     0.000,    0,'            '
  3027,'3 ',   1,   3,   2,    17.056,     3.514,     0.000,     0.000,     0.000,     0.000,   1,    1,  0,     0.000,     0.000,    0,'            '
  3027,'4 ',   1,   3,   2,    14.291,     3.395,     0.000,     0.000,     0.000,     0.000,   1,    1,  0,     0.000,     0.000,    0,'            '
  3028,'1 ',   1,   3,   1,     9.641,     2.400,     0.000,     0.000,     0.000,     0.000,   1,    1,  0,     0.000,     0.000,    0,'            '
  3035,'1 ',   1,   3,   1,     8.487,     1.807,     0.000,     0.000,     0.000,     0.000,   1,    1,  0,     0.000,     0.000,    0,'            '
  3035,'2 ',   1,   3,   1,     5.956,     1.047,     0.000,     0.000,     0.000,     0.000,   1,    1,  0,     0.000,     0.000,    0,'            '
  3035,'3 ',   1,   3,   1,     8.464,     2.089,     0.000,     0.000,     0.000,     0.000,   1,    1,  0,     0.000,     0.000,    0,'            '
  3035,'4 ',   1,   3,   1,    11.076,     1.774,     0.000,     0.000,     0.000,     0.000,   1,    1,  0,     0.000,     0.000,    0,'            '
  3035,'5 ',   0,   3,   1,     6.991,     1.171,     0.000,     0.000,     0.000,     0.000,   1,    1,  0,     0.000,     0.000,    0,'            '
  3036,'1 ',   0,   3,   1,     0.510,    -0.510,     0.000,     0.000,     0.000,     0.000,   1,    0,  0,     0.000,     0.000,    0,'            '
  3039,'1 ',   1,   3,   1,    25.070,     9.980,     0.000,     0.000,     0.000,     0.000,   2,    0,  0,     0.000,     0.000,    0,'            '
  3042,'1 ',   1,   3,   2,     5.652,     1.005,     0.000,     0.000,     0.000,     0.000,   1,    1,  0,     0.000,     0.000,    0,'            '
  3042,'2 ',   1,   3,   2,     8.929,     0.945,     0.000,     0.000,     0.000,     0.000,   1,    1,  0,     0.000,     0.000,    0,'            '
  3042,'3 ',   1,   3,   2,    15.200,     2.797,     0.000,     0.000,     0.000,     0.000,   1,    1,  0,     0.000,     0.000,    0,'            '
  3044,'1 ',   1,   3,   1,     5.394,     1.282,     0.000,     0.000,     0.000,     0.000,   1,    1,  0,     0.000,     0.000,    0,'            '
  3044,'2 ',   1,   3,   1,     6.218,     1.541,     0.000,     0.000,     0.000,     0.000,   1,    1,  0,     0.000,     0.000,    0,'            '
  3046,'1 ',   1,   3,   2,    15.088,     4.435,     0.000,     0.000,     0.000,     0.000,   1,    1,  0,     0.000,     0.000,    0,'            '
  3048,'1 ',   1,   3,   1,    13.479,     3.552,     0.000,     0.000,     0.000,     0.000,   1,    1,  0,     0.000,     0.000,    0,'            '
  3048,'2 ',   1,   3,   1,    13.897,     3.657,     0.000,     0.000,     0.000,     0.000,   1,    1,  0,     0.000,     0.000,    0,'            '
  3048,'3 ',   1,   3,   1,     0.529,     0.010,     0.000,     0.000,     0.000,     0.000,   1,    1,  0,     0.000,     0.000,    0,'            '
  3048,'4 ',   0,   3,   1,    11.705,     4.838,     0.000,     0.000,     0.000,     0.000,   1,    1,  0,     0.000,     0.000,    0,'            '
  3048,'5 ',   0,   3,   1,     8.612,     2.588,     0.000,     0.000,     0.000,     0.000,   1,    1,  0,     0.000,     0.000,    0,'            '
  3050,'1 ',   1,   3,   1,     3.342,     0.899,     0.000,     0.000,     0.000,     0.000,   1,    1,  0,     0.000,     0.000,    0,'            '
  3050,'2 ',   1,   3,   1,    10.468,     1.681,     0.000,     0.000,     0.000,     0.000,   1,    1,  0,     0.000,     0.000,    0,'            '
  3051,'1 ',   1,   3,   1,    14.304,     3.793,     0.000,     0.000,     0.000,     0.000,   1,    1,  0,     0.000,     0.000,    0,'            '
  3051,'2 ',   1,   3,   1,     8.452,     0.836,     0.000,     0.000,     0.000,     0.000,   1,    1,  0,     0.000,     0.000,    0,'            '
  3051,'3 ',   1,   3,   1,    15.150,     4.231,     0.000,     0.000,     0.000,     0.000,   1,    1,  0,     0.000,     0.000,    0,'            '
  3053,'1 ',   1,   3,   3,     9.965,     2.182,     0.000,     0.000,     0.000,     0.000,   1,    1,  0,     0.000,     0.000,    0,'            '
  3053,'2 ',   1,   3,   3,    12.720,     5.611,     0.000,     0.000,     0.000,     0.000,   1,    1,  0,     0.000,     0.000,    0,'            '
  3053,'3 ',   1,   3,   3,     7.928,     1.808,     0.000,     0.000,     0.000,     0.000,   1,    1,  0,     0.000,     0.000,    0,'            '
  3053,'4 ',   1,   3,   3,    11.316,     2.482,     0.000,     0.000,     0.000,     0.000,   1,    1,  0,     0.000,     0.000,    0,'            '
  3053,'5 ',   0,   3,   3,     2.941,     0.201,     0.000,     0.000,     0.000,     0.000,   1,    1,  0,     0.000,     0.000,    0,'            '
  3056,'1 ',   1,   3,   4,    18.927,     8.574,     0.000,     0.000,     0.000,     0.000,   1,    1,  0,     0.000,     0.000,    0,'            '
  3056,'2 ',   1,   3,   4,    15.564,     3.414,     0.000,     0.000,     0.000,     0.000,   1,    1,  0,     0.000,     0.000,    0,'            '
  3056,'3 ',   1,   3,   4,    13.003,     2.302,     0.000,     0.000,     0.000,     0.000,   1,    1,  0,     0.000,     0.000,    0,'            '
  3056,'4 ',   0,   3,   4,     4.911,     0.360,     0.000,     0.000,     0.000,     0.000,   1,    1,  0,     0.000,     0.000,    0,'            '
  3057,'1 ',   1,   3,   4,     8.813,     1.024,     0.000,     0.000,     0.000,     0.000,   1,    1,  0,     0.000,     0.000,    0,'            '
  3057,'2 ',   0,   3,   4,     3.179,     0.091,     0.000,     0.000,     0.000,     0.000,   1,    1,  0,     0.000,     0.000,    0,'            '
  3061,'1 ',   1,   3,   4,     8.154,     0.614,     0.000,     0.000,     0.000,     0.000,   1,    1,  0,     0.000,     0.000,    0,'            '
  3061,'2 ',   1,   3,   4,    14.485,     2.640,     0.000,     0.000,     0.000,     0.000,   1,    1,  0,     0.000,     0.000,    0,'            '
  3063,'1 ',   1,   3,   2,     2.686,     0.478,     0.000,     0.000,     0.000,     0.000,   1,    1,  0,     0.000,     0.000,    0,'            '
  3063,'2 ',   1,   3,   2,    11.848,     2.108,     0.000,     0.000,     0.000,     0.000,   1,    1,  0,     0.000,     0.000,    0,'            '
  3066,'1 ',   1,   3,   2,    12.223,     2.331,     0.000,     0.000,     0.000,     0.000,   1,    1,  0,     0.000,     0.000,    0,'            '
  3068,'1 ',   1,   3,   4,    13.366,     1.766,     0.000,     0.000,     0.000,     0.000,   1,    1,  0,     0.000,     0.000,    0,'            '
  3068,'2 ',   1,   3,   4,    15.324,     1.344,     0.000,     0.000,     0.000,     0.000,   1,    1,  0,     0.000,     0.000,    0,'            '
  3068,'3 ',   1,   3,   4,     5.285,     0.533,     0.000,     0.000,     0.000,     0.000,   1,    1,  0,     0.000,     0.000,    0,'            '
  3068,'4 ',   1,   3,   4,     2.450,     0.361,     0.000,     0.000,     0.000,     0.000,   1,    1,  0,     0.000,     0.000,    0,'            '
  3070,'1 ',   1,   3,   3,    11.642,     0.301,     0.000,     0.000,     0.000,     0.000,   1,    1,  0,     0.000,     0.000,    0,'            '
  3073,'1 ',   1,   3,   1,     2.996,     0.406,     0.000,     0.000,     0.000,     0.000,   1,    1,  0,     0.000,     0.000,    0,'            '
  3074,'1 ',   1,   3,   4,     8.731,     1.989,     0.000,     0.000,     0.000,     0.000,   1,    1,  0,     0.000,     0.000,    0,'            '
  3074,'2 ',   1,   3,   4,    10.481,     2.313,     0.000,     0.000,     0.000,     0.000,   1,    1,  0,     0.000,     0.000,    0,'            '
  3074,'3 ',   1,   3,   4,     2.038,     0.350,     0.000,     0.000,     0.000,     0.000,   1,    1,  0,     0.000,     0.000,    0,'            '
  3074,'4 ',   1,   3,   4,     1.588,     0.312,     0.000,     0.000,     0.000,     0.000,   1,    1,  0,     0.000,     0.000,    0,'            '
  3076,'1 ',   1,   3,   4,     3.913,     1.071,     0.000,     0.000,     0.000,     0.000,   1,    1,  0,     0.000,     0.000,    0,'            '
  3076,'2 ',   1,   3,   4,     3.976,     0.304,     0.000,     0.000,     0.000,     0.000,   1,    1,  0,     0.000,     0.000,    0,'            '
  3076,'3 ',   1,   3,   4,     2.870,    -0.099,     0.000,     0.000,     0.000,     0.000,   1,    1,  0,     0.000,     0.000,    0,'            '
  3076,'4 ',   0,   3,   4,     3.300,     0.478,     0.000,     0.000,     0.000,     0.000,   1,    1,  0,     0.000,     0.000,    0,'            '
  3081,'1 ',   1,   3,   1,    16.900,     2.298,     0.000,     0.000,     0.000,     0.000,   1,    1,  0,     0.000,     0.000,    0,'            '
  3081,'2 ',   1,   3,   1,     0.980,     0.374,     0.000,     0.000,     0.000,     0.000,   1,    1,  0,     0.000,     0.000,    0,'            '
  3084,'1 ',   1,   3,   3,    12.000,     2.300,     0.000,     0.000,     0.000,     0.000,   1,    0,  0,     0.000,     0.000,    0,'            '
  3086,'1 ',   1,   3,   1,     2.508,     0.413,     0.000,     0.000,     0.000,     0.000,   1,    1,  0,     0.000,     0.000,    0,'            '
  3086,'2 ',   1,   3,   1,     5.976,     0.803,     0.000,     0.000,     0.000,     0.000,   1,    1,  0,     0.000,     0.000,    0,'            '
  3088,'1 ',   1,   3,   3,     3.064,     0.047,     0.000,     0.000,     0.000,     0.000,   1,    1,  0,     0.000,     0.000,    0,'            '
  3088,'2 ',   1,   3,   3,    13.885,     2.757,     0.000,     0.000,     0.000,     0.000,   1,    1,  0,     0.000,     0.000,    0,'            '
  3090,'1 ',   1,   3,   5,     3.797,     0.522,     0.000,     0.000,     0.000,     0.000,   1,    1,  0,     0.000,     0.000,    0,'            '
  3090,'2 ',   1,   3,   5,    19.671,     6.427,     0.000,     0.000,     0.000,     0.000,   1,    1,  0,     0.000,     0.000,    0,'            '
  3090,'3 ',   1,   3,   5,    24.707,     6.597,     0.000,     0.000,     0.000,     0.000,   1,    1,  0,     0.000,     0.000,    0,'            '
  3090,'4 ',   1,   3,   5,    14.622,     3.013,     0.000,     0.000,     0.000,     0.000,   1,    1,  0,     0.000,     0.000,    0,'            '
  3092,'1 ',   1,   3,   4,    12.900,     5.130,     0.000,     0.000,     0.000,     0.000,   2,    0,  0,     0.000,     0.000,    0,'            '
  3096,'1 ',   1,   3,   1,    15.150,     5.016,     0.000,     0.000,     0.000,     0.000,   1,    1,  0,     0.000,     0.000,    0,'            '
  3096,'2 ',   1,   3,   1,     8.566,     1.464,     0.000,     0.000,     0.000,     0.000,   1,    1,  0,     0.000,     0.000,    0,'            '
  3096,'3 ',   1,   3,   1,     2.300,     0.210,     0.000,     0.000,     0.000,     0.000,   1,    1,  0,     0.000,     0.000,    0,'            '
  3096,'4 ',   1,   3,   1,     7.700,     1.923,     0.000,     0.000,     0.000,     0.000,   1,    1,  0,     0.000,     0.000,    0,'            '
  3096,'5 ',   0,   3,   1,     6.548,     1.026,     0.000,     0.000,     0.000,     0.000,   1,    1,  0,     0.000,     0.000,    0,'            '
  3096,'6 ',   0,   3,   1,     7.689,     2.256,     0.000,     0.000,     0.000,     0.000,   1,    1,  0,     0.000,     0.000,    0,'            '
  3099,'1 ',   1,   3,   4,     5.593,     0.714,     0.000,     0.000,     0.000,     0.000,   1,    1,  0,     0.000,     0.000,    0,'            '
  3099,'2 ',   1,   3,   4,     8.780,     1.789,     0.000,     0.000,     0.000,     0.000,   1,    1,  0,     0.000,     0.000,    0,'            '
  3102,'1 ',   1,   3,   4,    12.707,     2.208,     0.000,     0.000,     0.000,     0.000,   1,    1,  0,     0.000,     0.000,    0,'            '
  3104,'1 ',   1,   3,   2,     9.636,     1.818,     0.000,     0.000,     0.000,     0.000,   1,    1,  0,     0.000,     0.000,    0,'            '
  3104,'2 ',   1,   3,   2,     6.319,    -0.303,     0.000,     0.000,     0.000,     0.000,   1,    1,  0,     0.000,     0.000,    0,'            '
  3104,'3 ',   1,   3,   2,    10.540,     1.617,     0.000,     0.000,     0.000,     0.000,   1,    1,  0,     0.000,     0.000,    0,'            '
  3104,'4 ',   1,   3,   2,    16.757,     2.939,     0.000,     0.000,     0.000,     0.000,   1,    1,  0,     0.000,     0.000,    0,'            '
  3106,'1 ',   1,   3,   5,    19.152,     4.099,     0.000,     0.000,     0.000,     0.000,   1,    1,  0,     0.000,     0.000,    0,'            '
  3106,'2 ',   1,   3,   5,    16.903,     4.329,     0.000,     0.000,     0.000,     0.000,   1,    1,  0,     0.000,     0.000,    0,'            '
  3106,'3 ',   1,   3,   5,     4.173,     0.642,     0.000,     0.000,     0.000,     0.000,   1,    1,  0,     0.000,     0.000,    0,'            '
  3106,'4 ',   1,   3,   5,    12.528,     2.095,     0.000,     0.000,     0.000,     0.000,   1,    1,  0,     0.000,     0.000,    0,'            '
  3106,'5 ',   0,   3,   5,   -15.969,    -2.436,     0.000,     0.000,     0.000,     0.000,   1,    0,  0,     0.000,     0.000,    0,'            '
  3109,'2 ',   0,   3,   3,     7.803,     1.970,     0.000,     0.000,     0.000,     0.000,   1,    1,  0,     0.000,     0.000,    0,'            '
  3112,'1 ',   1,   3,   4,    10.017,     2.577,     0.000,     0.000,     0.000,     0.000,   1,    1,  0,     0.000,     0.000,    0,'            '
  3112,'2 ',   1,   3,   4,    10.319,     2.350,     0.000,     0.000,     0.000,     0.000,   1,    1,  0,     0.000,     0.000,    0,'            '
  3112,'3 ',   1,   3,   4,     7.869,     1.876,     0.000,     0.000,     0.000,     0.000,   1,    1,  0,     0.000,     0.000,    0,'            '
  3112,'4 ',   1,   3,   4,     9.319,     2.252,     0.000,     0.000,     0.000,     0.000,   1,    1,  0,     0.000,     0.000,    0,'            '
  3117,'1 ',   1,   3,   2,    15.620,     1.673,     0.000,     0.000,     0.000,     0.000,   1,    1,  0,     0.000,     0.000,    0,'            '
  3117,'2 ',   1,   3,   2,    10.635,     1.924,     0.000,     0.000,     0.000,     0.000,   1,    1,  0,     0.000,     0.000,    0,'            '
  3119,'1 ',   1,   3,   4,     8.930,     1.701,     0.000,     0.000,     0.000,     0.000,   1,    1,  0,     0.000,     0.000,    0,'            '
  3119,'2 ',   1,   3,   4,    13.071,     2.264,     0.000,     0.000,     0.000,     0.000,   1,    1,  0,     0.000,     0.000,    0,'            '
  3119,'3 ',   1,   3,   4,    14.208,     4.203,     0.000,     0.000,     0.000,     0.000,   1,    1,  0,     0.000,     0.000,    0,'            '
  3119,'4 ',   1,   3,   4,     8.041,     0.136,     0.000,     0.000,     0.000,     0.000,   1,    1,  0,     0.000,     0.000,    0,'            '
  3121,'1 ',   1,   3,   1,     3.532,     0.783,     0.000,     0.000,     0.000,     0.000,   1,    1,  0,     0.000,     0.000,    0,'            '
  3121,'2 ',   1,   3,   1,     9.801,     2.038,     0.000,     0.000,     0.000,     0.000,   1,    1,  0,     0.000,     0.000,    0,'            '
  3121,'3 ',   1,   3,   1,     3.511,    -0.155,     0.000,     0.000,     0.000,     0.000,   1,    1,  0,     0.000,     0.000,    0,'            '
  3121,'4 ',   0,   3,   1,     2.270,    -0.430,     0.000,     0.000,     0.000,     0.000,   1,    1,  0,     0.000,     0.000,    0,'            '
  3124,'1 ',   1,   3,   1,    17.657,     3.238,     0.000,     0.000,     0.000,     0.000,   1,    1,  0,     0.000,     0.000,    0,'            '
  3124,'2 ',   1,   3,   1,     8.776,     2.404,     0.000,     0.000,     0.000,     0.000,   1,    1,  0,     0.000,     0.000,    0,'            '
  3124,'3 ',   0,   3,   1,    17.000,     5.700,     0.000,     0.000,     0.000,     0.000,   1,    1,  0,     0.000,     0.000,    0,'            '
  3124,'4 ',   1,   3,   1,     1.984,     0.000,     0.000,     0.000,     0.000,     0.000,   1,    1,  0,     0.000,     0.000,    0,'            '
  3126,'1 ',   1,   3,   1,     3.061,     0.501,     0.000,     0.000,     0.000,     0.000,   1,    1,  0,     0.000,     0.000,    0,'            '
  3126,'2 ',   1,   3,   1,     5.716,     1.004,     0.000,     0.000,     0.000,     0.000,   1,    1,  0,     0.000,     0.000,    0,'            '
  3126,'3 ',   1,   3,   1,     1.275,     0.073,     0.000,     0.000,     0.000,     0.000,   1,    1,  0,     0.000,     0.000,    0,'            '
  3127,'1 ',   1,   3,   4,     5.552,     0.301,     0.000,     0.000,     0.000,     0.000,   1,    1,  0,     0.000,     0.000,    0,'            '
  3127,'2 ',   1,   3,   4,     3.867,     0.175,     0.000,     0.000,     0.000,     0.000,   1,    1,  0,     0.000,     0.000,    0,'            '
  3127,'3 ',   1,   3,   4,     5.316,     0.563,     0.000,     0.000,     0.000,     0.000,   1,    1,  0,     0.000,     0.000,    0,'            '
  3130,'1 ',   1,   3,   4,     9.981,     1.888,     0.000,     0.000,     0.000,     0.000,   1,    1,  0,     0.000,     0.000,    0,'            '
  3130,'2 ',   1,   3,   4,     8.731,     1.527,     0.000,     0.000,     0.000,     0.000,   1,    1,  0,     0.000,     0.000,    0,'            '
  3130,'3 ',   1,   3,   4,    12.870,     3.403,     0.000,     0.000,     0.000,     0.000,   1,    1,  0,     0.000,     0.000,    0,'            '
  3133,'1 ',   1,   3,   4,     3.101,     0.749,     0.000,     0.000,     0.000,     0.000,   1,    1,  0,     0.000,     0.000,    0,'            '
  3134,'1 ',   1,   3,   1,     7.535,     1.587,     0.000,     0.000,     0.000,     0.000,   1,    1,  0,     0.000,     0.000,    0,'            '
  3134,'2 ',   1,   3,   1,    10.072,     2.841,     0.000,     0.000,     0.000,     0.000,   1,    1,  0,     0.000,     0.000,    0,'            '
  3134,'3 ',   1,   3,   1,     6.874,     2.161,     0.000,     0.000,     0.000,     0.000,   1,    1,  0,     0.000,     0.000,    0,'            '
  3134,'4 ',   0,   3,   1,     0.000,     0.000,     0.000,     0.000,     0.000,     0.000,   1,    1,  0,     0.000,     0.000,    0,'            '
  3136,'1 ',   1,   3,   1,     9.847,    -0.167,     0.000,     0.000,     0.000,     0.000,   1,    1,  0,     0.000,     0.000,    0,'            '
  3137,'1 ',   1,   3,   1,     8.749,     2.418,     0.000,     0.000,     0.000,     0.000,   1,    1,  0,     0.000,     0.000,    0,'            '
  3137,'2 ',   1,   3,   1,     5.423,     1.128,     0.000,     0.000,     0.000,     0.000,   1,    1,  0,     0.000,     0.000,    0,'            '
  3137,'3 ',   1,   3,   1,    13.070,     2.562,     0.000,     0.000,     0.000,     0.000,   1,    1,  0,     0.000,     0.000,    0,'            '
  3139,'1 ',   1,   3,   1,     1.816,     0.129,     0.000,     0.000,     0.000,     0.000,   2,    1,  0,     0.000,     0.000,    0,'            '
  3140,'1 ',   1,   3,   1,     8.776,     1.426,     0.000,     0.000,     0.000,     0.000,   1,    1,  0,     0.000,     0.000,    0,'            '
  3140,'2 ',   1,   3,   1,     8.776,     3.267,     0.000,     0.000,     0.000,     0.000,   1,    1,  0,     0.000,     0.000,    0,'            '
  3141,'1 ',   1,   3,   4,     7.249,     0.976,     0.000,     0.000,     0.000,     0.000,   1,    1,  0,     0.000,     0.000,    0,'            '
  3141,'2 ',   1,   3,   4,     4.551,     0.213,     0.000,     0.000,     0.000,     0.000,   1,    1,  0,     0.000,     0.000,    0,'            '
  3147,'1 ',   0,   3,   3,    10.022,     1.958,     0.000,     0.000,     0.000,     0.000,   1,    1,  0,     0.000,     0.000,    0,'            '
  3149,'1 ',   1,   3,   3,    -0.374,    -0.002,     0.000,     0.000,     0.000,     0.000,   2,    1,  0,     0.000,     0.000,    0,'            '
  3150,'1 ',   1,   3,   4,     3.788,     0.789,     0.000,     0.000,     0.000,     0.000,   1,    1,  0,     0.000,     0.000,    0,'            '
  3150,'2 ',   1,   3,   4,     1.805,     0.386,     0.000,     0.000,     0.000,     0.000,   1,    1,  0,     0.000,     0.000,    0,'            '
  3150,'3 ',   0,   3,   4,     4.212,     0.567,     0.000,     0.000,     0.000,     0.000,   1,    1,  0,     0.000,     0.000,    0,'            '
  3151,'1 ',   1,   3,   4,    13.814,     1.719,     0.000,     0.000,     0.000,     0.000,   1,    1,  0,     0.000,     0.000,    0,'            '
  3152,'1 ',   1,   3,   3,    15.864,     5.925,     0.000,     0.000,     0.000,     0.000,   1,    1,  0,     0.000,     0.000,    0,'            '
  3152,'2 ',   1,   3,   3,    13.876,     2.647,     0.000,     0.000,     0.000,     0.000,   1,    1,  0,     0.000,     0.000,    0,'            '
  3152,'RF',   1,   3,   3,    -3.870,    -2.390,     0.000,     0.000,     0.000,     0.000,   1,    0,  0,     0.000,     0.000,    0,'            '
  3157,'1 ',   1,   3,   2,     5.936,     1.535,     0.000,     0.000,     0.000,     0.000,   1,    1,  0,     0.000,     0.000,    0,'            '
  3157,'2 ',   1,   3,   2,     3.055,     0.572,     0.000,     0.000,     0.000,     0.000,   1,    1,  0,     0.000,     0.000,    0,'            '
  3159,'1 ',   1,   3,   1,    13.373,     2.192,     0.000,     0.000,     0.000,     0.000,   1,    1,  0,     0.000,     0.000,    0,'            '
  3159,'2 ',   1,   3,   1,    16.080,     2.505,     0.000,     0.000,     0.000,     0.000,   1,    1,  0,     0.000,     0.000,    0,'            '
  3161,'1 ',   1,   3,   1,     8.776,     3.267,     0.000,     0.000,     0.000,     0.000,   1,    1,  0,     0.000,     0.000,    0,'            '
  3161,'2 ',   1,   3,   1,     8.776,     3.267,     0.000,     0.000,     0.000,     0.000,   1,    1,  0,     0.000,     0.000,    0,'            '
  3164,'1 ',   1,   3,   2,     9.006,     1.639,     0.000,     0.000,     0.000,     0.000,   1,    1,  0,     0.000,     0.000,    0,'            '
  3164,'2 ',   1,   3,   2,     9.516,     2.450,     0.000,     0.000,     0.000,     0.000,   1,    1,  0,     0.000,     0.000,    0,'            '
  3164,'3 ',   1,   3,   2,     1.035,     0.263,     0.000,     0.000,     0.000,     0.000,   1,    1,  0,     0.000,     0.000,    0,'            '
  3166,'1 ',   1,   3,   3,     2.500,     0.700,     0.000,     0.000,     0.000,     0.000,   2,    0,  0,     0.000,     0.000,    0,'            '
  3181,'1 ',   1,   3,   1,    12.223,     5.012,     0.000,     0.000,     0.000,     0.000,   1,    1,  0,     0.000,     0.000,    0,'            '
  3181,'2 ',   1,   3,   1,     5.778,     0.952,     0.000,     0.000,     0.000,     0.000,   1,    1,  0,     0.000,     0.000,    0,'            '
  3181,'3 ',   0,   3,   1,     3.140,     0.664,     0.000,     0.000,     0.000,     0.000,   1,    1,  0,     0.000,     0.000,    0,'            '
  3181,'4 ',   0,   3,   1,     4.360,     0.543,     0.000,     0.000,     0.000,     0.000,   1,    1,  0,     0.000,     0.000,    0,'            '
  3184,'1 ',   1,   3,   3,    15.839,     3.352,     0.000,     0.000,     0.000,     0.000,   1,    1,  0,     0.000,     0.000,    0,'            '
  3184,'2 ',   1,   3,   3,    17.110,     3.237,     0.000,     0.000,     0.000,     0.000,   1,    1,  0,     0.000,     0.000,    0,'            '
  3184,'3 ',   1,   3,   3,     6.332,     1.488,     0.000,     0.000,     0.000,     0.000,   1,    1,  0,     0.000,     0.000,    0,'            '
  3184,'4 ',   1,   3,   3,    16.117,     0.635,     0.000,     0.000,     0.000,     0.000,   1,    1,  0,     0.000,     0.000,    0,'            '
  3186,'1 ',   1,   3,   1,    17.455,     8.866,     0.000,     0.000,     0.000,     0.000,   1,    1,  0,     0.000,     0.000,    0,'            '
  3186,'2 ',   1,   3,   1,    21.106,     5.536,     0.000,     0.000,     0.000,     0.000,   1,    1,  0,     0.000,     0.000,    0,'            '
  3186,'3 ',   0,   3,   1,    14.466,    14.466,     0.000,     0.000,     0.000,     0.000,   1,    0,  0,     0.000,     0.000,    0,'            '
  3187,'1 ',   1,   3,   4,     8.888,     2.054,     0.000,     0.000,     0.000,     0.000,   1,    1,  0,     0.000,     0.000,    0,'            '
  3187,'2 ',   1,   3,   4,    15.685,     2.110,     0.000,     0.000,     0.000,     0.000,   1,    1,  0,     0.000,     0.000,    0,'            '
  3194,'1 ',   1,   3,   1,     2.488,     0.684,     0.000,     0.000,     0.000,     0.000,   1,    1,  0,     0.000,     0.000,    0,'            '
  3194,'2 ',   1,   3,   1,     4.336,     0.634,     0.000,     0.000,     0.000,     0.000,   1,    1,  0,     0.000,     0.000,    0,'            '
  3213,'1 ',   1,   3,   1,    17.878,    13.146,     0.000,     0.000,     0.000,     0.000,   1,    0,  0,     0.000,     0.000,    0,'            '
  3228,'1 ',   1,   3,   1,    12.400,    -0.860,     0.000,     0.000,     0.000,     0.000,   2,    0,  0,     0.000,     0.000,    0,'            '
  3228,'2 ',   1,   3,   1,     8.000,     1.620,     0.000,     0.000,     0.000,     0.000,   2,    0,  0,     0.000,     0.000,    0,'            '
  3228,'3 ',   1,   3,   1,     9.000,     1.820,     0.000,     0.000,     0.000,     0.000,   2,    0,  0,     0.000,     0.000,    0,'            '
  3244,'1 ',   1,   3,   3,     4.592,     1.045,     0.000,     0.000,     0.000,     0.000,   2,    1,  0,     0.000,     0.000,    0,'            '
  3284,'1 ',   1,   3,   1,     8.285,     1.745,     0.000,     0.000,     0.000,     0.000,   1,    1,  0,     0.000,     0.000,    0,'            '
  3284,'2 ',   1,   3,   1,     5.139,     0.809,     0.000,     0.000,     0.000,     0.000,   1,    1,  0,     0.000,     0.000,    0,'            '
  3290,'1 ',   1,   3,   1,     8.766,     1.322,     0.000,     0.000,     0.000,     0.000,   1,    1,  0,     0.000,     0.000,    0,'            '
  3290,'2 ',   1,   3,   1,     8.818,     3.890,     0.000,     0.000,     0.000,     0.000,   1,    1,  0,     0.000,     0.000,    0,'            '
  3311,'1 ',   1,   3,   5,    13.061,     2.464,     0.000,     0.000,     0.000,     0.000,   1,    1,  0,     0.000,     0.000,    0,'            '
  3316,'1 ',   1,   3,   4,     8.004,     1.455,     0.000,     0.000,     0.000,     0.000,   1,    1,  0,     0.000,     0.000,    0,'            '
  3316,'2 ',   0,   3,   4,     3.487,     0.472,     0.000,     0.000,     0.000,     0.000,   1,    1,  0,     0.000,     0.000,    0,'            '
...
0 / END OF LOAD DATA, BEGIN FIXED SHUNT DATA
@!   I,'ID',STATUS,  GL,        BL
0 / END OF FIXED SHUNT DATA, BEGIN GENERATOR DATA
@!   I,'ID',      PG,        QG,        QT,        QB,     VS,    IREG,NREG,     MBASE,     ZR,         ZX,         RT,         XT,     GTAP,STAT, RMPCT,      PT,        PB,BASLOD,O1,    F1,  O2,    F2,  O3,    F3,  O4,    F4,WMOD, WPF
  3001,'1 ',    59.719,    11.961,    54.750,   -54.750,1.04000,  3001,   0,    91.250, 0.00000E+0, 1.80000E-1, 0.00000E+0, 0.00000E+0,1.00000,1,  100.0,    75.000,     0.000, 0,   1,1.0000
  3002,'1 ',    60.000,    11.980,    54.750,   -54.750,1.04000,  3002,   0,    91.250, 0.00000E+0, 1.80000E-1, 0.00000E+0, 0.00000E+0,1.00000,1,  100.0,    75.000,     0.000, 0,   1,1.0000
  3003,'1 ',    60.000,    11.980,    54.750,   -54.750,1.04000,  3003,   0,    91.250, 0.00000E+0, 1.80000E-1, 0.00000E+0, 0.00000E+0,1.00000,1,  100.0,    75.000,     0.000, 0,   1,1.0000
  3004,'1 ',    60.000,    11.980,    54.750,   -54.750,1.04000,  3004,   0,    91.250, 0.00000E+0, 1.80000E-1, 0.00000E+0, 0.00000E+0,1.00000,1,  100.0,    75.000,     0.000, 0,   1,1.0000
  3005,'1 ',    12.000,     5.000,     5.000,    -4.000,1.02000,  3005,   0,    17.000, 0.00000E+0, 1.50000E-1, 0.00000E+0, 0.00000E+0,1.00000,1,  100.0,    14.500,     0.000, 0,   1,1.0000
  3006,'1 ',    12.000,     5.000,     5.000,    -4.000,1.02000,  3006,   0,    17.000, 0.00000E+0, 1.20000E-1, 0.00000E+0, 0.00000E+0,1.00000,1,  100.0,    14.500,     0.000, 0,   1,1.0000
  3007,'1 ',    20.000,    10.000,    10.000,   -10.000,1.02000,  3007,   0,    21.053, 0.00000E+0, 1.50000E-1, 0.00000E+0, 0.00000E+0,1.00000,1,  100.0,    20.000,     0.000, 0,   1,1.0000
  3008,'1 ',    20.000,    10.000,    10.000,   -10.000,1.02000,  3008,   0,    21.053, 0.00000E+0, 2.40000E-1, 0.00000E+0, 0.00000E+0,1.00000,1,  100.0,    20.000,     0.000, 0,   1,1.0000
  3009,'1 ',    20.000,    10.000,    10.000,   -10.000,1.02000,  3009,   0,    21.053, 0.00000E+0, 2.10000E-1, 0.00000E+0, 0.00000E+0,1.00000,1,  100.0,    20.000,     0.000, 0,   1,1.0000
  3010,'1 ',    10.000,    10.000,    10.000,   -10.000,1.02000,  3010,   0,    21.053, 0.00000E+0, 2.30000E-1, 0.00000E+0, 0.00000E+0,1.00000,1,  100.0,    20.000,     0.000, 0,   1,1.0000
  3011,'1 ',     7.000,     1.442,     5.000,    -5.000,1.01000,  3011,   0,    25.000, 0.00000E+0, 1.44000E-1, 0.00000E+0, 0.00000E+0,1.00000,1,  100.0,    22.500,     0.000, 0,   1,1.0000
  3012,'1 ',    10.000,     1.788,     7.500,     0.000,1.02000,  3012,   0,    14.450, 0.00000E+0, 2.31000E-1, 0.00000E+0, 0.00000E+0,1.00000,1,  100.0,    10.000,     0.000, 0,   2,1.0000
  3012,'2 ',    10.000,     1.788,     7.500,     0.000,1.02000,  3012,   0,    14.450, 0.00000E+0, 2.31000E-1, 0.00000E+0, 0.00000E+0,1.00000,1,  100.0,    10.000,     0.000, 0,   2,1.0000
  3012,'3 ',    10.000,     1.788,     7.500,     0.000,1.02000,  3012,   0,    14.450, 0.00000E+0, 2.31000E-1, 0.00000E+0, 0.00000E+0,1.00000,1,  100.0,    10.000,     0.000, 0,   2,1.0000
  3013,'1 ',    10.000,     2.489,     7.500,     0.000,1.02000,  3013,   0,    14.450, 0.00000E+0, 2.31000E-1, 0.00000E+0, 0.00000E+0,1.00000,1,  100.0,    10.000,     0.000, 0,   2,1.0000
  3013,'2 ',    10.000,     2.489,     7.500,     0.000,1.02000,  3013,   0,    14.450, 0.00000E+0, 2.31000E-1, 0.00000E+0, 0.00000E+0,1.00000,1,  100.0,    10.000,     0.000, 0,   2,1.0000
  3013,'3 ',     0.000,     1.721,     7.500,     0.000,1.02000,  3013,   0,    14.450, 0.00000E+0, 2.31000E-1, 0.00000E+0, 0.00000E+0,1.00000,0,  100.0,    10.000,     0.000, 0,   2,1.0000
  3014,'1 ',     0.000,     3.181,     7.500,     0.000,1.02000,  3014,   0,    14.450, 0.00000E+0, 2.31000E-1, 0.00000E+0, 0.00000E+0,1.00000,0,  100.0,    10.000,     0.000, 0,   2,1.0000
  3014,'2 ',     0.000,     3.181,     7.500,     0.000,1.02000,  3014,   0,    14.450, 0.00000E+0, 2.31000E-1, 0.00000E+0, 0.00000E+0,1.00000,0,  100.0,    10.000,     0.000, 0,   2,1.0000
  3015,'1 ',     0.000,     0.000,    30.000,     0.000,1.00000,  3015,   0,    57.412, 0.00000E+0, 1.24000E-1, 0.00000E+0, 0.00000E+0,1.00000,0,  100.0,    40.000,     0.000, 0,   2,1.0000
  3017,'1 ',     0.000,     3.691,    11.250,    -3.750,1.00000,  3017,   0,    18.750, 0.00000E+0, 2.00000E-1, 0.00000E+0, 0.00000E+0,1.00000,0,  100.0,    18.000,     0.000, 0,   1,1.0000
  3018,'1 ',     0.000,     3.750,     3.750,    -3.750,1.00000,  3018,   0,    12.500, 0.00000E+0, 2.00000E-1, 0.00000E+0, 0.00000E+0,1.00000,0,  100.0,    15.000,     0.000, 0,   1,1.0000
  3019,'1 ',     0.000,     0.388,     9.000,    -3.750,1.02500,  3019,   0,    15.000, 0.00000E+0, 2.09000E-1, 0.00000E+0, 0.00000E+0,1.00000,0,  100.0,    11.000,     0.000, 0,   2,1.0000
  3019,'2 ',     0.000,     0.388,     9.000,    -3.750,1.02500,  3019,   0,    15.000, 0.00000E+0, 2.09000E-1, 0.00000E+0, 0.00000E+0,1.00000,0,  100.0,    11.000,     0.000, 0,   2,1.0000
  3019,'3 ',     0.000,     0.388,     9.000,    -3.750,1.02500,  3019,   0,    15.000, 0.00000E+0, 2.09000E-1, 0.00000E+0, 0.00000E+0,1.00000,0,  100.0,    11.000,     0.000, 0,   2,1.0000
  3019,'4 ',     0.000,     1.258,     9.000,    -3.750,1.02500,  3019,   0,    15.000, 0.00000E+0, 2.09000E-1, 0.00000E+0, 0.00000E+0,1.00000,0,  100.0,    11.000,     0.000, 0,   2,1.0000
  3019,'5 ',     0.000,     1.258,     9.000,    -3.750,1.02500,  3019,   0,    15.000, 0.00000E+0, 2.09000E-1, 0.00000E+0, 0.00000E+0,1.00000,0,  100.0,    11.000,     0.000, 0,   2,1.0000
  3020,'1 ',     0.000,     5.241,     5.625,    -1.875,1.00000,  3020,   0,    10.000, 0.00000E+0, 3.82000E-1, 0.00000E+0, 0.00000E+0,1.00000,0,  100.0,     7.500,     0.000, 0,   1,1.0000
  3020,'2 ',     0.000,     5.625,     5.625,    -1.875,1.00000,  3020,   0,    10.000, 0.00000E+0, 3.82000E-1, 0.00000E+0, 0.00000E+0,1.00000,0,  100.0,     7.500,     0.000, 0,   1,1.0000
  3020,'3 ',     0.000,     2.555,     5.625,    -1.875,1.00000,  3020,   0,    10.000, 0.00000E+0, 3.82000E-1, 0.00000E+0, 0.00000E+0,1.00000,0,  100.0,     7.500,     0.000, 0,   1,1.0000
  3020,'4 ',     0.000,     4.024,     5.625,    -1.875,1.00000,  3020,   0,    10.000, 0.00000E+0, 3.82000E-1, 0.00000E+0, 0.00000E+0,1.00000,0,  100.0,     7.500,     0.000, 0,   1,1.0000
  3021,'1 ',     0.000,     0.643,     5.625,    -1.875,1.02000,  3021,   0,     9.375, 0.00000E+0, 2.90000E-1, 0.00000E+0, 0.00000E+0,1.00000,0,  100.0,     7.500,     0.000, 0,   1,1.0000
  3021,'2 ',     0.000,     0.643,     5.625,    -1.875,1.02000,  3021,   0,     9.375, 0.00000E+0, 2.90000E-1, 0.00000E+0, 0.00000E+0,1.00000,0,  100.0,     7.500,     0.000, 0,   1,1.0000
  3021,'3 ',     0.000,     0.643,     5.625,    -1.875,1.02000,  3021,   0,     9.375, 0.00000E+0, 2.90000E-1, 0.00000E+0, 0.00000E+0,1.00000,0,  100.0,     7.500,     0.000, 0,   1,1.0000
  3021,'4 ',     0.000,     0.643,     5.625,    -1.875,1.02000,  3021,   0,     9.375, 0.00000E+0, 2.90000E-1, 0.00000E+0, 0.00000E+0,1.00000,0,  100.0,     7.500,     0.000, 0,   1,1.0000
  3023,'1 ',     0.000,     2.300,     2.300,    -2.300,1.02000,  3023,   0,     8.312, 0.00000E+0, 2.27000E-1, 0.00000E+0, 0.00000E+0,1.00000,0,  100.0,     6.000,     0.000, 0,   1,1.0000
  3023,'2 ',     0.000,     1.500,     1.500,    -1.500,1.02000,  3023,   0,     8.312, 0.00000E+0, 2.27000E-1, 0.00000E+0, 0.00000E+0,1.00000,0,  100.0,     6.000,     0.000, 0,   1,1.0000
  3023,'3 ',     0.000,     1.120,     1.500,    -1.500,1.02000,  3023,   0,     8.312, 0.00000E+0, 2.27000E-1, 0.00000E+0, 0.00000E+0,1.00000,0,  100.0,     6.000,     0.000, 0,   1,1.0000
  3023,'4 ',     0.000,     1.500,     1.500,    -1.500,1.02000,  3023,   0,     8.312, 0.00000E+0, 2.27000E-1, 0.00000E+0, 0.00000E+0,1.00000,0,  100.0,     6.000,     0.000, 0,   1,1.0000
  3042,'1 ',     0.000,     1.100,     1.100,    -1.100,1.02000,  3042,   0,     2.100, 0.00000E+0, 2.90000E-1, 0.00000E+0, 0.00000E+0,1.00000,0,  100.0,     2.000,     0.000, 0,   1,1.0000
  3065,'1 ',     0.300,     0.000,     0.000,     0.000,1.00000,  3065,   0,     0.625, 0.00000E+0, 2.90000E-1, 0.00000E+0, 0.00000E+0,1.00000,1,  100.0,     0.500,     0.000, 0,   2,1.0000
  3068,'1 ',     8.000,     5.860,    14.520,   -14.520,1.02000,  3068,   0,    33.300, 0.00000E+0, 2.27000E-1, 0.00000E+0, 0.00000E+0,1.00000,1,  100.0,    30.000,     0.000, 0,   1,1.0000
...